tests/data/short_circuit/floating-ground-edge-case/floating-ground-no-error-succeeded-scenarios/wye-wye_n/input.json
{
  "version": "1.0",
  "type": "input",
  "is_batch": false,
  "attributes": {},
  "data": {
    "node": [
      {"id": 1, "u_rated": 10000},
      {"id": 2, "u_rated": 100}
    ],
    "transformer": [
      {"id": 4, "from_node": 1, "to_node": 2, "from_status": 1, "to_status": 1, "u1": 10000, "u2": 100, "sn": 100000, "uk": 0.10000000000000001, "pk": 1000, "i0": 0.001, "p0": 10, "winding_from": 0, "winding_to": 1, "clock": 0, "tap_side": 0, "tap_pos": 0, "tap_min": -10, "tap_max": 10, "tap_nom": 0, "tap_size": 100, "r_grounding_from": 0, "x_grounding_from": 0, "r_grounding_to": 0, "x_grounding_to": 0}
    ],
    "source": [
      {"id": 3, "node": 1, "status": 1, "u_ref": 1, "sk": 1000000000000000, "rx_ratio": 1, "z01_ratio": 2}
    ],
    "fault": [
      {"id": 11, "status": 1, "fault_type": 1, "fault_phase": 1, "fault_object": 2, "r_f": 0, "x_f": 0}
    ]
  }
}